@<TRIPOS>MOLECULE
9UY3_ligand_A1ESD.pdb
 40 43 0 0 0
SMALL
GASTEIGER

@<TRIPOS>ATOM
      1  C10       97.2820   90.5370  130.4290 C.2   603  ESD603      0.0894
      2  C13       99.6310   93.3310  131.3210 C.2   603  ESD603      0.0021
      3  C15       98.4020   94.0800  133.4980 C.2   603  ESD603     -0.0005
      4  C17       97.5300   92.0790  132.0110 C.2   603  ESD603      0.0015
      5  C21       94.1520   93.7870  133.8820 C.3   603  ESD603      0.0935
      6  C22       93.3540   95.0840  133.8960 C.3   603  ESD603      0.0220
      7  C24       91.4100   93.8880  135.0530 C.3   603  ESD603      0.0925
      8  C26       90.8260   93.9000  136.4850 C.3   603  ESD603      0.0367
      9  C28       90.9680   96.4580  137.2390 C.ar  603  ESD603     -0.0043
     10  C01       93.5590   89.5830  128.2140 C.3   603  ESD603      0.0284
     11  C02       92.3410   90.3890  128.6420 C.3   603  ESD603      0.1468
     12  C03       91.1870   89.4390  128.9310 C.3   603  ESD603      0.0284
     13  C04       92.6850   91.1850  129.9110 C.2   603  ESD603      0.2573
     14  C07       94.4390   91.4820  131.8230 C.3   603  ESD603      0.1756
     15  C08       95.5170   90.5650  132.3260 C.3   603  ESD603      0.0587
     16  C09       96.7680   91.0410  131.5990 C.2   603  ESD603     -0.0031
     17  C12       98.5600   92.2180  131.1040 C.3   603  ESD603      0.1472
     18  C14       99.4950   94.2170  132.5210 C.2   603  ESD603     -0.0023
     19  C16       97.3970   93.0050  133.2730 C.2   603  ESD603     -0.0024
     20  C18       93.4000   91.5010  132.9170 C.2   603  ESD603      0.2458
     21  C23       92.3260   95.0470  134.9590 C.3   603  ESD603      0.0124
     22  C25       92.2100   92.5790  134.9230 C.3   603  ESD603      0.1023
     23  C27       90.1650   95.2730  136.7080 C.ar  603  ESD603     -0.0217
     24  C29       90.2940   97.7980  137.4200 C.ar  603  ESD603     -0.0003
     25  C30       88.8140   97.9270  137.0830 C.ar  603  ESD603     -0.0000
     26  C31       87.9770   96.7690  136.5650 C.ar  603  ESD603     -0.0003
     27  C32       88.6830   95.4280  136.3870 C.ar  603  ESD603     -0.0043
     28  C33       90.2850   94.1420  133.9550 C.2   603  ESD603      0.2399
     29  C36       88.2870   94.0750  132.5510 C.3   603  ESD603      0.1346
     30  C38       87.4550   91.8360  133.2540 C.3   603  ESD603      0.1112
     31  C39       87.5750   92.7050  135.3540 C.3   603  ESD603      0.1112
     32  N06       93.9220   90.8680  130.6160 N.am  603  ESD603     -0.1963
     33  N11       98.4070   91.2660  130.1350 N.2   603  ESD603     -0.2623
     34  N20       93.2680   92.5930  133.8640 N.am  603  ESD603     -0.2777
     35  N35       89.0120   93.4800  133.6480 N.am  603  ESD603     -0.2194
     36  N37       88.4070   92.3470  134.2270 N.3   603  ESD603     -0.1996
     37  N40       91.9710   91.2660  127.5500 N.3   603  ESD603     -0.1250
     38  O05       91.9590   92.0260  130.2960 O.2   603  ESD603     -0.2718
     39  O19       92.6760   90.6040  132.9990 O.2   603  ESD603     -0.2730
     40  O34       90.4510   95.0730  133.2620 O.2   603  ESD603     -0.2735
@<TRIPOS>BOND
     1    37    11    1
     2    10    11    1
     3    11    12    1
     4    11    13    1
     5    13    38    2
     6    13    32   am
     7    33     1    2
     8    33    17    1
     9     1    16    1
    10    32    14    1
    11    17     2    1
    12    17     4    1
    13     2    18    2
    14    16     4    2
    15    16    15    1
    16    14    15    1
    17    14    20    1
    18     4    19    1
    19    18     3    1
    20    29    35    1
    21    20    39    2
    22    20    34   am
    23    30    36    1
    24    40    28    2
    25    19     3    2
    26    35    28   am
    27    35    36    1
    28    34     5    1
    29    34    22    1
    30     5     6    1
    31     6    21    1
    32    28     7    1
    33    36    31    1
    34    22     7    1
    35    21     7    1
    36     7     8    1
    37    27    26   ar
    38    27    23   ar
    39     8    23    1
    40    26    25   ar
    41    23     9   ar
    42    25    24   ar
    43     9    24   ar
