9UY3_ligand_A1ESD.pdb
 OpenBabel09022622423D

 40 43  0  0  1  0  0  0  0  0999 V2000
   97.2820   90.5370  130.4290 C   0  0  0  0  0  0  0  0  0  0  0  0
   99.6310   93.3310  131.3210 C   0  0  0  0  0  0  0  0  0  0  0  0
   98.4020   94.0800  133.4980 C   0  0  0  0  0  0  0  0  0  0  0  0
   97.5300   92.0790  132.0110 C   0  0  0  0  0  0  0  0  0  0  0  0
   94.1520   93.7870  133.8820 C   0  0  0  0  0  0  0  0  0  0  0  0
   93.3540   95.0840  133.8960 C   0  0  0  0  0  0  0  0  0  0  0  0
   91.4100   93.8880  135.0530 C   0  0  1  0  0  0  0  0  0  0  0  0
   90.8260   93.9000  136.4850 C   0  0  0  0  0  0  0  0  0  0  0  0
   90.9680   96.4580  137.2390 C   0  0  0  0  0  0  0  0  0  0  0  0
   93.5590   89.5830  128.2140 C   0  0  0  0  0  0  0  0  0  0  0  0
   92.3410   90.3890  128.6420 C   0  0  0  0  0  0  0  0  0  0  0  0
   91.1870   89.4390  128.9310 C   0  0  0  0  0  0  0  0  0  0  0  0
   92.6850   91.1850  129.9110 C   0  0  0  0  0  0  0  0  0  0  0  0
   94.4390   91.4820  131.8230 C   0  0  2  0  0  0  0  0  0  0  0  0
   95.5170   90.5650  132.3260 C   0  0  0  0  0  0  0  0  0  0  0  0
   96.7680   91.0410  131.5990 C   0  0  0  0  0  0  0  0  0  0  0  0
   98.5600   92.2180  131.1040 C   0  0  2  0  0  0  0  0  0  0  0  0
   99.4950   94.2170  132.5210 C   0  0  0  0  0  0  0  0  0  0  0  0
   97.3970   93.0050  133.2730 C   0  0  0  0  0  0  0  0  0  0  0  0
   93.4000   91.5010  132.9170 C   0  0  0  0  0  0  0  0  0  0  0  0
   92.3260   95.0470  134.9590 C   0  0  0  0  0  0  0  0  0  0  0  0
   92.2100   92.5790  134.9230 C   0  0  0  0  0  0  0  0  0  0  0  0
   90.1650   95.2730  136.7080 C   0  0  0  0  0  0  0  0  0  0  0  0
   90.2940   97.7980  137.4200 C   0  0  0  0  0  0  0  0  0  0  0  0
   88.8140   97.9270  137.0830 C   0  0  0  0  0  0  0  0  0  0  0  0
   87.9770   96.7690  136.5650 C   0  0  0  0  0  0  0  0  0  0  0  0
   88.6830   95.4280  136.3870 C   0  0  0  0  0  0  0  0  0  0  0  0
   90.2850   94.1420  133.9550 C   0  0  0  0  0  0  0  0  0  0  0  0
   88.2870   94.0750  132.5510 C   0  0  0  0  0  0  0  0  0  0  0  0
   87.4550   91.8360  133.2540 C   0  0  0  0  0  0  0  0  0  0  0  0
   87.5750   92.7050  135.3540 C   0  0  0  0  0  0  0  0  0  0  0  0
   93.9220   90.8680  130.6160 N   0  0  0  0  0  0  0  0  0  0  0  0
   98.4070   91.2660  130.1350 N   0  0  0  0  0  0  0  0  0  0  0  0
   93.2680   92.5930  133.8640 N   0  0  0  0  0  0  0  0  0  0  0  0
   89.0120   93.4800  133.6480 N   0  0  0  0  0  0  0  0  0  0  0  0
   88.4070   92.3470  134.2270 N   0  0  0  0  0  0  0  0  0  0  0  0
   91.9710   91.2660  127.5500 N   0  0  0  0  0  0  0  0  0  0  0  0
   91.9590   92.0260  130.2960 O   0  0  0  0  0  0  0  0  0  0  0  0
   92.6760   90.6040  132.9990 O   0  0  0  0  0  0  0  0  0  0  0  0
   90.4510   95.0730  133.2620 O   0  0  0  0  0  0  0  0  0  0  0  0
  1 16  1  0  0  0  0
  2 18  2  0  0  0  0
  4 19  1  0  0  0  0
  5  6  1  0  0  0  0
  6 21  1  0  0  0  0
  7  8  1  1  0  0  0
  8 23  1  0  0  0  0
  9 24  1  0  0  0  0
 10 11  1  0  0  0  0
 11 12  1  0  0  0  0
 11 13  1  0  0  0  0
 13 38  2  0  0  0  0
 13 32  1  0  0  0  0
 14 15  1  1  0  0  0
 14 20  1  0  0  0  0
 16  4  2  0  0  0  0
 16 15  1  0  0  0  0
 17  2  1  1  0  0  0
 17  4  1  0  0  0  0
 18  3  1  0  0  0  0
 19  3  2  0  0  0  0
 20 39  2  0  0  0  0
 20 34  1  0  0  0  0
 21  7  1  0  0  0  0
 22  7  1  0  0  0  0
 23  9  2  0  0  0  0
 25 24  2  0  0  0  0
 26 25  1  0  0  0  0
 27 26  2  0  0  0  0
 27 23  1  0  0  0  0
 28  7  1  0  0  0  0
 29 35  1  0  0  0  0
 30 36  1  0  0  0  0
 32 14  1  0  0  0  0
 33  1  2  0  0  0  0
 33 17  1  0  0  0  0
 34  5  1  0  0  0  0
 34 22  1  0  0  0  0
 35 28  1  0  0  0  0
 35 36  1  0  0  0  0
 36 31  1  0  0  0  0
 37 11  1  0  0  0  0
 40 28  2  0  0  0  0
M  END
>  <REMARK>
   anamorelin (A1ESD) from 9UY3
   用途: 定义口袋中心 + redocking 验证

$$$$
